
#======================================================================
# CRYSTAL DATA
#----------------------------------------------------------------------
data_VESTA_phase_1

_chemical_name_common                  'Li Ge  P  S                           '
_cell_length_a                         8.743401
_cell_length_b                         8.743219
_cell_length_c                         12.853294
_cell_angle_alpha                      89.963463
_cell_angle_beta                       90.033394
_cell_angle_gamma                      90.465927
_cell_volume                           982.543269
_space_group_name_H-M_alt              'P 1'
_space_group_IT_number                 1

loop_
_space_group_symop_operation_xyz
   'x, y, z'

loop_
   _atom_site_label
   _atom_site_occupancy
   _atom_site_fract_x
   _atom_site_fract_y
   _atom_site_fract_z
   _atom_site_adp_type
   _atom_site_U_iso_or_equiv
   _atom_site_type_symbol
   Li1        1.0     0.000281     0.002757     0.261515    Uiso  ? Li
   Li2        1.0     0.002788     0.000271     0.738482    Uiso  ? Li
   Li3        1.0     0.332168     0.286639     0.252043    Uiso  ? Li
   Li4        1.0     0.286745     0.332263     0.747944    Uiso  ? Li
   Li5        1.0     0.669588     0.716197     0.251272    Uiso  ? Li
   Li6        1.0     0.263825     0.742387     0.826622    Uiso  ? Li
   Li7        1.0     0.739429     0.259553     0.826411    Uiso  ? Li
   Li8        1.0     0.259584     0.739379     0.173557    Uiso  ? Li
   Li9        1.0     0.742374     0.263803     0.173390    Uiso  ? Li
   Li10       1.0     0.716223     0.669569     0.748735    Uiso  ? Li
   Li11       1.0     0.250563     0.250556     0.999984    Uiso  ? Li
   Li12       1.0     0.751648     0.751635     0.999994    Uiso  ? Li
   Li13       1.0     0.252687     0.747872     0.498189    Uiso  ? Li
   Li14       1.0     0.747858     0.252675     0.501788    Uiso  ? Li
   Li15       1.0     0.245152     0.245142     0.499996    Uiso  ? Li
   Li16       1.0     0.756155     0.756124     0.500024    Uiso  ? Li
   Li17       1.0     0.002807     0.501390     0.942471    Uiso  ? Li
   Li18       1.0     0.000210     0.500635     0.441130    Uiso  ? Li
   Li19       1.0     0.500642     0.000201     0.558874    Uiso  ? Li
   Li20       1.0     0.501393     0.002786     0.057537    Uiso  ? Li
   Ge1        1.0     0.001413     0.501057     0.684654    Uiso  ? Ge
   Ge2        1.0     0.501066     0.001382     0.315350    Uiso  ? Ge
   P1         1.0     0.001226     0.501292     0.189381    Uiso  ? P
   P2         1.0     0.501337     0.001225     0.810624    Uiso  ? P
   P3         1.0     0.000600     0.000588     0.500000    Uiso  ? P
   P4         1.0     0.501236     0.501199     0.999998    Uiso  ? P
   S1         1.0     0.998332     0.191140     0.406420    Uiso  ? S
   S2         1.0     0.001575     0.811208     0.405503    Uiso  ? S
   S3         1.0     0.307871     0.493007     0.908940    Uiso  ? S
   S4         1.0     0.695255     0.508422     0.909771    Uiso  ? S
   S5         1.0     0.508456     0.695210     0.090229    Uiso  ? S
   S6         1.0     0.493003     0.307824     0.091055    Uiso  ? S
   S7         1.0     0.191149     0.998306     0.593570    Uiso  ? S
   S8         1.0     0.811227     0.001571     0.594508    Uiso  ? S
   S9         1.0     0.001568     0.307325     0.097461    Uiso  ? S
   S10        1.0     0.001124     0.694873     0.096924    Uiso  ? S
   S11        1.0     0.213281     0.495503     0.587023    Uiso  ? S
   S12        1.0     0.788661     0.506426     0.587660    Uiso  ? S
   S13        1.0     0.506437     0.788626     0.412350    Uiso  ? S
   S14        1.0     0.495516     0.213244     0.412982    Uiso  ? S
   S15        1.0     0.307365     0.001571     0.902545    Uiso  ? S
   S16        1.0     0.694902     0.001102     0.903081    Uiso  ? S
   S17        1.0     0.992645     0.704537     0.791579    Uiso  ? S
   S18        1.0     0.010621     0.297322     0.791502    Uiso  ? S
   S19        1.0     0.811060     0.485459     0.283170    Uiso  ? S
   S20        1.0     0.191135     0.517372     0.283566    Uiso  ? S
   S21        1.0     0.517445     0.191141     0.716431    Uiso  ? S
   S22        1.0     0.485490     0.811059     0.716843    Uiso  ? S
   S23        1.0     0.704543     0.992601     0.208420    Uiso  ? S
   S24        1.0     0.297340     0.010574     0.208499    Uiso  ? S
